STAAD SPACE
START JOB INFORMATION
JOB NAME Cercha Warren Cajon 3D
END JOB INFORMATION
INPUT WIDTH 79
UNIT METER KN
JOINT COORDINATES
1 0.000 1.000 0.000
2 0.900 1.000 0.000
3 1.800 1.000 0.000
4 2.700 1.000 0.000
5 3.600 1.000 0.000
6 4.500 1.000 0.000
7 5.400 1.000 0.000
8 6.300 1.000 0.000
9 7.125 1.000 0.000
10 8.025 1.000 0.000
11 8.925 1.000 0.000
12 9.825 1.000 0.000
13 10.725 1.000 0.000
14 11.550 1.000 0.000
15 12.450 1.000 0.000
16 13.350 1.000 0.000
17 14.250 1.000 0.000
18 15.150 1.000 0.000
19 16.050 1.000 0.000
20 16.520 1.000 0.000
# ... 60 like lines cut
MEMBER INCIDENCES
1 1 2
2 2 3
3 3 4
4 4 5
5 5 6
6 6 7
7 7 8
8 8 9
9 9 10
10 10 11
11 11 12
12 12 13
13 13 14
14 14 15
15 15 16
16 16 17
17 17 18
18 18 19
19 19 20
20 21 22
# ... 174 like lines cut
MEMBER PROPERTY
1 TO 38 TABLE ST TUBO70x4_2L
39 TO 77 TABLE ST TUBO70x4
78 TO 115 TABLE ST TUBO70x4_2L
116 TO 194 TABLE ST TUBO70x4
DEFINE MATERIAL START
ISOTROPIC ACERO
E 200e6
POISSON 0.3
DENSITY 78.5
END DEFINE MATERIAL
CONSTANTS
MATERIAL ACERO ALL
SUPPORTS
21 PINNED
61 PINNED
40 ROLLER
80 ROLLER
LOAD 1 LOADTYPE dead
SELFWEIGHT Y -1
JOINT LOAD
1 FY -0.468
41 FY -0.468
2 FY -0.936
42 FY -0.936
3 FY -0.936
43 FY -0.936
4 FY -0.936
44 FY -0.936
5 FY -0.936
45 FY -0.936
6 FY -0.936
46 FY -0.936
7 FY -0.936
47 FY -0.936
8 FY -0.897
48 FY -0.897
9 FY -0.897
49 FY -0.897
10 FY -0.936
50 FY -0.936
# ... 20 like lines cut
* Reacciones cerchas transición B y C sobre cajón eje 2
27 FY -30.23
33 FY -30.23
67 FY -30.23
73 FY -30.23

LOAD 2 LOADTYPE roof_live
SELFWEIGHT Y -1
JOINT LOAD
1 FY -0.2925
41 FY -0.2925
2 FY -0.585
42 FY -0.585
3 FY -0.585
43 FY -0.585
4 FY -0.585
44 FY -0.585
5 FY -0.585
45 FY -0.585
6 FY -0.585
46 FY -0.585
7 FY -0.585
47 FY -0.585
8 FY -0.561
48 FY -0.561
9 FY -0.5603
49 FY -0.5603
10 FY -0.585
50 FY -0.585
# ... 20 like lines cut
* Reacciones cerchas transición B y C sobre cajón eje 2
27 FY -19.48
33 FY -19.48
67 FY -19.48
73 FY -19.48

LOAD 3 LOADTYPE wind
SELFWEIGHT Y -1
JOINT LOAD
1 FY -0.234
41 FY -0.234
2 FY -0.468
42 FY -0.468
3 FY -0.468
43 FY -0.468
4 FY -0.468
44 FY -0.468
5 FY -0.468
45 FY -0.468
6 FY -0.468
46 FY -0.468
7 FY -0.468
47 FY -0.468
8 FY -0.4485
48 FY -0.4485
9 FY -0.4485
49 FY -0.4485
10 FY -0.468
50 FY -0.468
# ... 20 like lines cut
* Reacciones cerchas transición B y C sobre cajón eje 2
27 FY -15.90
33 FY -15.90
67 FY -15.90
73 FY -15.90

LOAD 4 LOADTYPE granizo
SELFWEIGHT Y -1
JOINT LOAD
1 FY -0.585
41 FY -0.585
2 FY -1.17
42 FY -1.17
3 FY -1.17
43 FY -1.17
4 FY -1.17
44 FY -1.17
5 FY -1.17
45 FY -1.17
6 FY -1.17
46 FY -1.17
7 FY -1.17
47 FY -1.17
8 FY -1.1213
48 FY -1.1213
9 FY -1.1213
49 FY -1.1213
10 FY -1.17
50 FY -1.17
# ... 20 like lines cut
* Reacciones cerchas transición B y C sobre cajón eje 2
27 FY -37.40
33 FY -37.40
67 FY -37.40
73 FY -37.40


LOAD COMBINATION 101 U1 = 1.4D
1 1.4 

LOAD COMBINATION 102 U2 = 1.2D+1.6Lr
1 1.2 2 1.6 

LOAD COMBINATION 103 U3 = 1.2D+1.6G
1 1.2 4 1.6 

LOAD COMBINATION 104 U4 = 1.2D+1.6Lr+0.5W
1 1.2 2 1.6 3 0.5 

LOAD COMBINATION 105 U5 = 1.2D+1.6G+0.5W
1 1.2 4 1.6 3 0.5 

LOAD COMBINATION 106 U6 = 1.2D+1.0W+0.5Lr
1 1.2 3 1.0 2 0.5 

LOAD COMBINATION 107 U7 = 1.2D+1.0W+0.5G
1 1.2 3 1.0 4 0.5 

LOAD COMBINATION 108 U8 = 0.9D+1.0W
1 0.9 3 1.0 

DEFINE ENVELOPE
101 TO 108 ENVELOPE 1 TYPE STRENGTH
END DEFINE ENVELOPE
PARAMETER
CODE AISC 360-10
FYLD 345000
FU 450000
TRACK 2
CHECK CODE ALL
PERFORM ANALYSIS
FINISH

* Sync OK: 80N 194M