STAAD SPACE
START JOB INFORMATION
JOB NAME Cercha Warren Cajon 3D
END JOB INFORMATION
INPUT WIDTH 79
UNIT METER KN
JOINT COORDINATES
1 0.000 1.000 0.000
2 0.900 1.000 0.000
3 1.800 1.000 0.000
4 2.700 1.000 0.000
5 3.600 1.000 0.000
6 4.500 1.000 0.000
7 5.400 1.000 0.000
8 6.300 1.000 0.000
9 7.125 1.000 0.000
10 8.025 1.000 0.000
11 8.925 1.000 0.000
12 9.825 1.000 0.000
13 10.725 1.000 0.000
14 11.550 1.000 0.000
15 12.450 1.000 0.000
16 13.350 1.000 0.000
17 14.250 1.000 0.000
18 15.150 1.000 0.000
19 16.050 1.000 0.000
20 16.520 1.000 0.000
# ... 60 like lines cut
MEMBER INCIDENCES
1 1 2
2 2 3
3 3 4
4 4 5
5 5 6
6 6 7
7 7 8
8 8 9
9 9 10
10 10 11
11 11 12
12 12 13
13 13 14
14 14 15
15 15 16
16 16 17
17 17 18
18 18 19
19 19 20
20 21 22
# ... 174 like lines cut
MEMBER PROPERTY
1 TO 194 TABLE ST TUBO70x4
DEFINE MATERIAL START
ISOTROPIC ACERO
E 200e6
POISSON 0.3
DENSITY 78.5
END DEFINE MATERIAL
CONSTANTS
MATERIAL ACERO ALL
SUPPORTS
21 PINNED
61 PINNED
40 ROLLER
80 ROLLER
LOAD 1 LOADTYPE dead
SELFWEIGHT Y -1
PERFORM ANALYSIS
FINISH