STAAD SPACE
START JOB INFORMATION
JOB NAME Cercha Warren Cajon 3D
END JOB INFORMATION
INPUT WIDTH 79
UNIT METER KN
JOINT COORDINATES
1 0.000 1.000 0.000
2 0.900 1.000 0.000
3 1.800 1.000 0.000
4 2.700 1.000 0.000
5 3.600 1.000 0.000
6 4.500 1.000 0.000
7 5.400 1.000 0.000
8 6.300 1.000 0.000
9 7.125 1.000 0.000
10 8.025 1.000 0.000
11 8.925 1.000 0.000
12 9.825 1.000 0.000
13 10.725 1.000 0.000
14 11.550 1.000 0.000
15 12.450 1.000 0.000
16 13.350 1.000 0.000
17 14.250 1.000 0.000
18 15.150 1.000 0.000
19 16.050 1.000 0.000
20 16.520 1.000 0.000
# ... 60 like lines cut
MEMBER INCIDENCES
1 1 2
2 2 3
3 3 4
4 4 5
5 5 6
6 6 7
7 7 8
8 8 9
9 9 10
10 10 11
11 11 12
12 12 13
13 13 14
14 14 15
15 15 16
16 16 17
17 17 18
18 18 19
19 19 20
20 21 22
# ... 174 like lines cut
MEMBER PROPERTY
1 TO 194 TABLE ST TUBO70x4
DEFINE MATERIAL START
ISOTROPIC ACERO
E 200e6
POISSON 0.3
DENSITY 78.5
END DEFINE MATERIAL
CONSTANTS
MATERIAL ACERO ALL
SUPPORTS
21 PINNED
61 PINNED
40 ROLLER
80 ROLLER
LOAD 1 LOADTYPE dead
SELFWEIGHT Y -1
JOINT LOAD
1 FY -0.720
41 FY -0.720
2 FY -1.440
42 FY -1.440
3 FY -1.440
43 FY -1.440
4 FY -1.440
44 FY -1.440
5 FY -1.440
45 FY -1.440
6 FY -1.440
46 FY -1.440
7 FY -1.440
47 FY -1.440
8 FY -1.380
48 FY -1.380
9 FY -1.380
49 FY -1.380
10 FY -1.440
50 FY -1.440
# ... 20 like lines cut

LOAD 2 LOADTYPE roof_live
SELFWEIGHT Y -1
JOINT LOAD
1 FY -0.450
41 FY -0.450
2 FY -0.900
42 FY -0.900
3 FY -0.900
43 FY -0.900
4 FY -0.900
44 FY -0.900
5 FY -0.900
45 FY -0.900
6 FY -0.900
46 FY -0.900
7 FY -0.900
47 FY -0.900
8 FY -0.863
48 FY -0.863
9 FY -0.862
49 FY -0.862
10 FY -0.900
50 FY -0.900
# ... 20 like lines cut

LOAD 3 LOADTYPE wind
SELFWEIGHT Y -1
JOINT LOAD
1 FY -0.360
41 FY -0.360
2 FY -0.720
42 FY -0.720
3 FY -0.720
43 FY -0.720
4 FY -0.720
44 FY -0.720
5 FY -0.720
45 FY -0.720
6 FY -0.720
46 FY -0.720
7 FY -0.720
47 FY -0.720
8 FY -0.690
48 FY -0.690
9 FY -0.690
49 FY -0.690
10 FY -0.720
50 FY -0.720
# ... 20 like lines cut

LOAD 4 LOADTYPE granizo
SELFWEIGHT Y -1
JOINT LOAD
1 FY -0.900
41 FY -0.900
2 FY -1.800
42 FY -1.800
3 FY -1.800
43 FY -1.800
4 FY -1.800
44 FY -1.800
5 FY -1.800
45 FY -1.800
6 FY -1.800
46 FY -1.800
7 FY -1.800
47 FY -1.800
8 FY -1.725
48 FY -1.725
9 FY -1.725
49 FY -1.725
10 FY -1.800
50 FY -1.800
# ... 20 like lines cut


LOAD COMBINATION 101 U1 = 1.4D
1 1.4 

LOAD COMBINATION 102 U2 = 1.2D+1.6Lr
1 1.2 2 1.6 

LOAD COMBINATION 103 U3 = 1.2D+1.6G
1 1.2 4 1.6 

LOAD COMBINATION 104 U4 = 1.2D+1.6Lr+0.5W
1 1.2 2 1.6 3 0.5 

LOAD COMBINATION 105 U5 = 1.2D+1.6G+0.5W
1 1.2 4 1.6 3 0.5 

LOAD COMBINATION 106 U6 = 1.2D+1.0W+0.5Lr
1 1.2 3 1.0 2 0.5 

LOAD COMBINATION 107 U7 = 1.2D+1.0W+0.5G
1 1.2 3 1.0 4 0.5 

LOAD COMBINATION 108 U8 = 0.9D+1.0W
1 0.9 3 1.0 

DEFINE ENVELOPE
101 TO 108 ENVELOPE 1 TYPE STRENGTH
END DEFINE ENVELOPE

PERFORM ANALYSIS
FINISH