STAAD SPACE
START JOB INFORMATION
JOB NAME Portico de Prueba
END JOB INFORMATION
INPUT WIDTH 79
UNIT METER KN
JOINT COORDINATES
1 0   0 0
2 0   4 0
3 5   0 0
4 5   4 0
MEMBER INCIDENCES
1 1 2
2 3 4
3 2 4
MEMBER PROPERTY
1 TO 3 TABLE ST IPE300
DEFINE MATERIAL START
ISOTROPIC Acero
E 200e6
POISSON 0.3
DENSITY 78.5
END DEFINE MATERIAL
CONSTANTS
MATERIAL Acero ALL
SUPPORTS
1 FIXED
3 FIXED
LOAD 1 LOADTYPE wind
JOINT LOAD
2 FX 10
4 FX 10
PERFORM ANALYSIS
FINISH


* Loaded: 5N 4M

* ERROR: No section names 'Default'

* Loaded: 5N 3M
* Analysis OK | Max disp: 4.86 mm

* Loaded: 4N 3M
* Analysis OK | Max disp: 4.86 mm